test/data/matpower/multi_nw/bus_37/pypsa-eur_multinetwork_37/mpc_010_006.m
function mpc = mpc_010_006
%MPC_010_006	Extended MATPOWER case file generated from aggregated PyPSA generator and load data
%	Period: 10 	Weight: 21
%	Time step: 6

%%	MATPOWER Case Format : Version 2
mpc.version = '2';

%% system MVA base
mpc.baseMVA = 100;

%% Weight
mpc.weight = 21;

%% bus data
%	bus_i	type	Pd	Qd	Gs	Bs	area	Vm	Va	baseKV	zone	Vmax	Vmin
mpc.bus = [
	1	2	599.4344092236832	0.0	0.0	0.0	1	1.0	0.0	230.0	1	1.1	0.9;	%AL1 0
	2	2	9992.03041180676	0.0	0.0	0.0	2	1.0	0.0	230.0	1	1.1	0.9;	%AT1 0
	3	2	1621.1742892321695	0.0	0.0	0.0	3	1.0	0.0	230.0	1	1.1	0.9;	%BA1 0
	4	2	11039.994155807588	0.0	0.0	0.0	4	1.0	0.0	230.0	1	1.1	0.9;	%BE1 0
	5	2	5376.185588576892	0.0	0.0	0.0	5	1.0	0.0	230.0	1	1.1	0.9;	%BG1 0
	6	2	7126.802612562767	0.0	0.0	0.0	6	1.0	0.0	230.0	1	1.1	0.9;	%CH1 0
	7	2	8282.4992750331	0.0	0.0	0.0	7	1.0	0.0	230.0	1	1.1	0.9;	%CZ1 0
	8	2	68638.35649328571	0.0	0.0	0.0	8	1.0	0.0	230.0	1	1.1	0.9;	%DE1 0
	9	2	2649.168229607942	0.0	0.0	0.0	9	1.0	0.0	230.0	1	1.1	0.9;	%DK1 0
	10	2	2023.2269222651573	0.0	0.0	0.0	10	1.0	0.0	230.0	1	1.1	0.9;	%DK2 0
	11	2	1073.9177252078948	0.0	0.0	0.0	11	1.0	0.0	230.0	1	1.1	0.9;	%EE6 0
	12	2	27233.360974854433	0.0	0.0	0.0	12	1.0	0.0	230.0	1	1.1	0.9;	%ES1 0
	13	2	588.6367523535449	0.0	0.0	0.0	13	1.0	0.0	230.0	1	1.1	0.9;	%ES4 0
	14	2	11910.727770551046	0.0	0.0	0.0	14	1.0	0.0	230.0	1	1.1	0.9;	%FI2 0
	15	2	74774.94976201466	0.0	0.0	0.0	15	1.0	0.0	230.0	1	1.1	0.9;	%FR1 0
	16	2	33204.81973736562	0.0	0.0	0.0	16	1.0	0.0	230.0	1	1.1	0.9;	%GB0 0
	17	2	817.6976626693481	0.0	0.0	0.0	17	1.0	0.0	230.0	1	1.1	0.9;	%GB5 0
	18	2	6308.108982573525	0.0	0.0	0.0	18	1.0	0.0	230.0	1	1.1	0.9;	%GR1 0
	19	2	2194.355563011859	0.0	0.0	0.0	19	1.0	0.0	230.0	1	1.1	0.9;	%HR1 0
	20	2	5087.6517699720125	0.0	0.0	0.0	20	1.0	0.0	230.0	1	1.1	0.9;	%HU1 0
	21	2	2444.67751750103	0.0	0.0	0.0	21	1.0	0.0	230.0	1	1.1	0.9;	%IE5 0
	22	2	35184.41161605101	0.0	0.0	0.0	22	1.0	0.0	230.0	1	1.1	0.9;	%IT1 0
	23	2	2102.7241478847286	0.0	0.0	0.0	23	1.0	0.0	230.0	1	1.1	0.9;	%IT3 0
	24	2	1477.8942463207516	0.0	0.0	0.0	24	1.0	0.0	230.0	1	1.1	0.9;	%LT6 0
	25	2	908.9809677988287	0.0	0.0	0.0	25	1.0	0.0	230.0	1	1.1	0.9;	%LU1 0
	26	2	1051.344619311208	0.0	0.0	0.0	26	1.0	0.0	230.0	1	1.1	0.9;	%LV6 0
	27	2	426.1853721531152	0.0	0.0	0.0	27	1.0	0.0	230.0	1	1.1	0.9;	%ME1 0
	28	2	1081.906006891526	0.0	0.0	0.0	28	1.0	0.0	230.0	1	1.1	0.9;	%MK1 0
	29	2	13690.95784261127	0.0	0.0	0.0	29	1.0	0.0	230.0	1	1.1	0.9;	%NL1 0
	30	2	17508.621156957754	0.0	0.0	0.0	30	1.0	0.0	230.0	1	1.1	0.9;	%NO2 0
	31	2	18889.925287325772	0.0	0.0	0.0	31	1.0	0.0	230.0	1	1.1	0.9;	%PL1 0
	32	2	4947.717221874169	0.0	0.0	0.0	32	1.0	0.0	230.0	1	1.1	0.9;	%PT1 0
	33	2	7082.737631845805	0.0	0.0	0.0	33	1.0	0.0	230.0	1	1.1	0.9;	%RO1 0
	34	2	5767.320979274621	0.0	0.0	0.0	34	1.0	0.0	230.0	1	1.1	0.9;	%RS1 0
	35	2	18950.069010140138	0.0	0.0	0.0	35	1.0	0.0	230.0	1	1.1	0.9;	%SE2 0
	36	2	1774.5425518945158	0.0	0.0	0.0	36	1.0	0.0	230.0	1	1.1	0.9;	%SI1 0
	37	2	3625.7102708400066	0.0	0.0	0.0	37	1.0	0.0	230.0	1	1.1	0.9;	%SK1 0
];

%% generator data
%	bus	Pg	Qg	Qmax	Qmin	Vg	mBase	status	Pmax	Pmin	H	n0	nE	nE_max	P_b_nom	carrier
mpc.gen = [
	1	0.0	0.0	0.0	-0.0	1.0	100.0	1	224.0	78.4	5.0	0	0	500	224.0	0;	%AL1 0 CCGT
	1	0.0	0.0	0.0	-0.0	1.0	100.0	1	224.0	78.4	2.8	0	0	500	224.0	1;	%AL1 0 OCGT
	1	0.0	0.0	0.0	-0.0	1.0	100.0	1	0.07678507729565494	0.0	0.0	0	0	5500	17.0	2;	%AL1 0 offwind
	1	0.0	0.0	0.0	-0.0	1.0	100.0	1	44.92727152904733	0.0	2.8	2	2	2	50.0	3;	%AL1 0 oil
	1	0.0	0.0	0.0	-0.0	1.0	100.0	1	0.3464957977799462	0.0	0.0	0	0	2500	38.0	4;	%AL1 0 onwind
	1	0.0	0.0	0.0	-0.0	1.0	100.0	1	2.4579241097588045	0.0	3.5	2	2	2	26.0	5;	%AL1 0 ror
	1	0.0	0.0	0.0	-0.0	1.0	100.0	1	0.0	0.0	0.0	1	1	3400	28.0	6;	%AL1 0 solar
	2	0.0	0.0	0.0	-0.0	1.0	100.0	1	217.66500000000002	78.4	5.0	20	20	13100	224.0	0;	%AT1 0 CCGT
	2	0.0	0.0	0.0	-0.0	1.0	100.0	1	224.0	78.4	2.8	0	0	13100	224.0	1;	%AT1 0 OCGT
	2	0.0	0.0	0.0	-0.0	1.0	100.0	1	11.702681969178123	0.0	0.0	85	85	76700	38.0	4;	%AT1 0 onwind
	2	0.0	0.0	0.0	-0.0	1.0	100.0	1	9.480010941004874	0.0	3.5	184	184	184	26.0	5;	%AT1 0 ror
	2	0.0	0.0	0.0	-0.0	1.0	100.0	1	0.0	0.0	0.0	80	80	104100	28.0	6;	%AT1 0 solar
	3	0.0	0.0	0.0	-0.0	1.0	100.0	1	224.0	78.4	5.0	0	0	1100	224.0	0;	%BA1 0 CCGT
	3	0.0	0.0	0.0	-0.0	1.0	100.0	1	224.0	78.4	2.8	0	0	1100	224.0	1;	%BA1 0 OCGT
	3	0.0	0.0	0.0	-0.0	1.0	100.0	1	209.5	110.0	3.0	4	4	4	275.0	7;	%BA1 0 lignite
	3	0.0	0.0	0.0	-0.0	1.0	100.0	1	0.13977482847355485	0.0	0.0	3	3	6100	38.0	4;	%BA1 0 onwind
	3	0.0	0.0	0.0	-0.0	1.0	100.0	1	0.0	0.0	0.0	2	2	8200	28.0	6;	%BA1 0 solar
	4	0.0	0.0	0.0	-0.0	1.0	100.0	1	219.53809523809525	78.4	5.0	21	21	13800	224.0	0;	%BE1 0 CCGT
	4	0.0	0.0	0.0	-0.0	1.0	100.0	1	224.0	78.4	2.8	0	0	13800	224.0	1;	%BE1 0 OCGT
	4	0.0	0.0	0.0	-0.0	1.0	100.0	1	9.925925925925926	2.0436	2.8	27	27	27	10.0	8;	%BE1 0 biomass
	4	0.0	0.0	0.0	-0.0	1.0	100.0	1	29.914090731989255	0.0	0.0	137	137	180700	17.0	2;	%BE1 0 offwind
	4	0.0	0.0	0.0	-0.0	1.0	100.0	1	22.628807110280796	0.0	0.0	65	65	80900	38.0	4;	%BE1 0 onwind
	4	0.0	0.0	0.0	-0.0	1.0	100.0	1	8.180360028606108	0.0	3.5	4	4	4	26.0	5;	%BE1 0 ror
	4	0.0	0.0	0.0	-0.0	1.0	100.0	1	0.0	0.0	0.0	202	202	109700	28.0	6;	%BE1 0 solar
	5	0.0	0.0	0.0	-0.0	1.0	100.0	1	224.0	78.4	5.0	0	0	5000	224.0	0;	%BG1 0 CCGT
	5	0.0	0.0	0.0	-0.0	1.0	100.0	1	224.0	78.4	2.8	0	0	5000	224.0	1;	%BG1 0 OCGT
	5	0.0	0.0	0.0	-0.0	1.0	100.0	1	160.41703044199232	89.375	3.0	1	1	1	275.0	9;	%BG1 0 coal
	5	0.0	0.0	0.0	-0.0	1.0	100.0	1	242.52278758367152	110.0	3.0	6	6	6	275.0	7;	%BG1 0 lignite
	5	0.0	0.0	0.0	-0.0	1.0	100.0	1	693.3333333333334	500.0	5.5	3	3	3	1000.0	10;	%BG1 0 nuclear
	5	0.0	0.0	0.0	-0.0	1.0	100.0	1	10.901651296943895	0.0	0.0	0	0	65700	17.0	2;	%BG1 0 offwind
	5	0.0	0.0	0.0	-0.0	1.0	100.0	1	7.886415551770632	0.0	0.0	19	19	29400	38.0	4;	%BG1 0 onwind
	5	0.0	0.0	0.0	-0.0	1.0	100.0	1	0.8176780836314196	0.0	3.5	5	5	5	26.0	5;	%BG1 0 ror
	5	0.0	0.0	0.0	-0.0	1.0	100.0	1	1.0599312400436196	0.0	0.0	39	39	39900	28.0	6;	%BG1 0 solar
	6	0.0	0.0	0.0	-0.0	1.0	100.0	1	224.0	78.4	5.0	0	0	9700	224.0	0;	%CH1 0 CCGT
	6	0.0	0.0	0.0	-0.0	1.0	100.0	1	224.0	78.4	2.8	0	0	9700	224.0	1;	%CH1 0 OCGT
	6	0.0	0.0	0.0	-0.0	1.0	100.0	1	9.861652941176471	2.0436	2.8	34	34	34	10.0	8;	%CH1 0 biomass
	6	0.0	0.0	0.0	-0.0	1.0	100.0	1	990.0	500.0	5.5	3	3	3	1000.0	10;	%CH1 0 nuclear
	6	0.0	0.0	0.0	-0.0	1.0	100.0	1	0.4822767426440649	0.0	0.0	3	3	56800	38.0	4;	%CH1 0 onwind
	6	0.0	0.0	0.0	-0.0	1.0	100.0	1	4.408394359511244	0.0	3.5	171	171	171	26.0	5;	%CH1 0 ror
	6	0.0	0.0	0.0	-0.0	1.0	100.0	1	0.0	0.0	0.0	106	106	77100	28.0	6;	%CH1 0 solar
	7	0.0	0.0	0.0	-0.0	1.0	100.0	1	197.38	78.4	5.0	5	5	10200	224.0	0;	%CZ1 0 CCGT
	7	0.0	0.0	0.0	-0.0	1.0	100.0	1	224.0	78.4	2.8	0	0	10200	224.0	1;	%CZ1 0 OCGT
	7	0.0	0.0	0.0	-0.0	1.0	100.0	1	259.384773901276	110.0	3.0	14	14	14	275.0	7;	%CZ1 0 lignite
	7	0.0	0.0	0.0	-0.0	1.0	100.0	1	858.0	500.0	5.5	5	5	5	1000.0	10;	%CZ1 0 nuclear
	7	0.0	0.0	0.0	-0.0	1.0	100.0	1	17.834725054270404	0.0	0.0	9	9	59800	38.0	4;	%CZ1 0 onwind
	7	0.0	0.0	0.0	-0.0	1.0	100.0	1	3.5310065724829793	0.0	3.5	2	2	2	26.0	5;	%CZ1 0 ror
	7	0.0	0.0	0.0	-0.0	1.0	100.0	1	0.0	0.0	0.0	75	75	81200	28.0	6;	%CZ1 0 solar
	8	0.0	0.0	0.0	-0.0	1.0	100.0	1	223.36530288461537	78.4	5.0	104	104	160700	224.0	0;	%DE1 0 CCGT
	8	0.0	0.0	0.0	-0.0	1.0	100.0	1	78.4	78.4	2.8	1	1	160700	224.0	1;	%DE1 0 OCGT
	8	0.0	0.0	0.0	-0.0	1.0	100.0	1	9.993322844919787	2.0436	2.8	748	748	748	10.0	8;	%DE1 0 biomass
	8	0.0	0.0	0.0	-0.0	1.0	100.0	1	271.4126525154921	89.375	3.0	33	33	33	275.0	9;	%DE1 0 coal
	8	0.0	0.0	0.0	-0.0	1.0	100.0	1	272.8539328301224	110.0	3.0	77	77	77	275.0	7;	%DE1 0 lignite
	8	0.0	0.0	0.0	-0.0	1.0	100.0	1	30.077552830796805	0.0	0.0	456	456	2117500	17.0	2;	%DE1 0 offwind
	8	0.0	0.0	0.0	-0.0	1.0	100.0	1	48.949999999999996	0.0	2.8	18	18	18	50.0	3;	%DE1 0 oil
	8	0.0	0.0	0.0	-0.0	1.0	100.0	1	22.017482308895445	0.0	0.0	1431	1431	947300	38.0	4;	%DE1 0 onwind
	8	0.0	0.0	0.0	-0.0	1.0	100.0	1	20.077963531390758	0.0	3.5	99	99	99	26.0	5;	%DE1 0 ror
	8	0.0	0.0	0.0	-0.0	1.0	100.0	1	0.0	0.0	0.0	1919	1919	1285600	28.0	6;	%DE1 0 solar
	9	0.0	0.0	0.0	-0.0	1.0	100.0	1	166.73333333333332	78.4	5.0	3	3	7200	224.0	0;	%DK1 0 CCGT
	9	0.0	0.0	0.0	-0.0	1.0	100.0	1	224.0	78.4	2.8	0	0	7200	224.0	1;	%DK1 0 OCGT
	9	0.0	0.0	0.0	-0.0	1.0	100.0	1	9.538461538461538	2.0436	2.8	13	13	13	10.0	8;	%DK1 0 biomass
	9	0.0	0.0	0.0	-0.0	1.0	100.0	1	231.37136217774997	89.375	3.0	5	5	5	275.0	9;	%DK1 0 coal
	9	0.0	0.0	0.0	-0.0	1.0	100.0	1	30.060946661106318	0.0	0.0	82	82	93900	17.0	2;	%DK1 0 offwind
	9	0.0	0.0	0.0	-0.0	1.0	100.0	1	36.17795275172192	0.0	0.0	100	100	42000	38.0	4;	%DK1 0 onwind
	9	0.0	0.0	0.0	-0.0	1.0	100.0	1	0.0	0.0	0.0	37	37	57000	28.0	6;	%DK1 0 solar
	10	0.0	0.0	0.0	-0.0	1.0	100.0	1	187.0	78.4	5.0	4	4	2000	224.0	0;	%DK2 0 CCGT
	10	0.0	0.0	0.0	-0.0	1.0	100.0	1	224.0	78.4	2.8	0	0	2000	224.0	1;	%DK2 0 OCGT
	10	0.0	0.0	0.0	-0.0	1.0	100.0	1	10.0	2.0436	2.8	7	7	7	10.0	8;	%DK2 0 biomass
	10	0.0	0.0	0.0	-0.0	1.0	100.0	1	28.806620898931563	0.0	0.0	19	19	25400	17.0	2;	%DK2 0 offwind
	10	0.0	0.0	0.0	-0.0	1.0	100.0	1	36.055676027956935	0.0	0.0	20	20	11400	38.0	4;	%DK2 0 onwind
	10	0.0	0.0	0.0	-0.0	1.0	100.0	1	0.0	0.0	0.0	10	10	15500	28.0	6;	%DK2 0 solar
	11	0.0	0.0	0.0	-0.0	1.0	100.0	1	224.0	78.4	5.0	0	0	700	224.0	0;	%EE6 0 CCGT
	11	0.0	0.0	0.0	-0.0	1.0	100.0	1	224.0	78.4	2.8	0	0	700	224.0	1;	%EE6 0 OCGT
	11	0.0	0.0	0.0	-0.0	1.0	100.0	1	30.100974595009983	0.0	0.0	0	0	9300	17.0	2;	%EE6 0 offwind
	11	0.0	0.0	0.0	-0.0	1.0	100.0	1	21.700291368511294	0.0	0.0	9	9	4200	38.0	4;	%EE6 0 onwind
	11	0.0	0.0	0.0	-0.0	1.0	100.0	1	0.0	0.0	0.0	5	5	5600	28.0	6;	%EE6 0 solar
	12	0.0	0.0	0.0	-0.0	1.0	100.0	1	223.20823762376236	78.4	5.0	101	101	63100	224.0	0;	%ES1 0 CCGT
	12	0.0	0.0	0.0	-0.0	1.0	100.0	1	224.0	78.4	2.8	0	0	63100	224.0	1;	%ES1 0 OCGT
	12	0.0	0.0	0.0	-0.0	1.0	100.0	1	242.28938995344714	89.375	3.0	8	8	8	275.0	9;	%ES1 0 coal
	12	0.0	0.0	0.0	-0.0	1.0	100.0	1	889.65	500.0	5.5	8	8	8	1000.0	10;	%ES1 0 nuclear
	12	0.0	0.0	0.0	-0.0	1.0	100.0	1	1.5114900655014158	0.0	0.0	1	1	831300	17.0	2;	%ES1 0 offwind
	12	0.0	0.0	0.0	-0.0	1.0	100.0	1	45.29516666666667	0.0	2.8	6	6	6	50.0	3;	%ES1 0 oil
	12	0.0	0.0	0.0	-0.0	1.0	100.0	1	3.0457343815905773	0.0	0.0	706	706	371900	38.0	4;	%ES1 0 onwind
	12	0.0	0.0	0.0	-0.0	1.0	100.0	1	0.9945459670689322	0.0	3.5	11	11	11	26.0	5;	%ES1 0 ror
	12	0.0	0.0	0.0	-0.0	1.0	100.0	1	0.0	0.0	0.0	418	418	504800	28.0	6;	%ES1 0 solar
	13	0.0	0.0	0.0	-0.0	1.0	100.0	1	193.8	78.4	5.0	5	5	1400	224.0	0;	%ES4 0 CCGT
	13	0.0	0.0	0.0	-0.0	1.0	100.0	1	224.0	78.4	2.8	0	0	1400	224.0	1;	%ES4 0 OCGT
	13	0.0	0.0	0.0	-0.0	1.0	100.0	1	0.018472745656746205	0.0	0.0	1	1	18000	17.0	2;	%ES4 0 offwind
	13	0.0	0.0	0.0	-0.0	1.0	100.0	1	48.8	0.0	2.8	4	4	4	50.0	3;	%ES4 0 oil
	13	0.0	0.0	0.0	-0.0	1.0	100.0	1	2.5421534202552585	0.0	0.0	7	7	8100	38.0	4;	%ES4 0 onwind
	13	0.0	0.0	0.0	-0.0	1.0	100.0	1	0.0	0.0	0.0	4	4	10900	28.0	6;	%ES4 0 solar
	14	0.0	0.0	0.0	-0.0	1.0	100.0	1	214.725	78.4	5.0	8	8	11400	224.0	0;	%FI2 0 CCGT
	14	0.0	0.0	0.0	-0.0	1.0	100.0	1	224.0	78.4	2.8	0	0	11400	224.0	1;	%FI2 0 OCGT
	14	0.0	0.0	0.0	-0.0	1.0	100.0	1	9.71875	2.0436	2.8	32	32	32	10.0	8;	%FI2 0 biomass
	14	0.0	0.0	0.0	-0.0	1.0	100.0	1	238.0441221846116	89.375	3.0	5	5	5	275.0	9;	%FI2 0 coal
	14	0.0	0.0	0.0	-0.0	1.0	100.0	1	872.4	500.0	5.5	5	5	5	1000.0	10;	%FI2 0 nuclear
	14	0.0	0.0	0.0	-0.0	1.0	100.0	1	22.762250571552862	0.0	0.0	5	5	149100	17.0	2;	%FI2 0 offwind
	14	0.0	0.0	0.0	-0.0	1.0	100.0	1	18.099516038010375	0.0	0.0	84	84	66700	38.0	4;	%FI2 0 onwind
	14	0.0	0.0	0.0	-0.0	1.0	100.0	1	10.528931449618398	0.0	3.5	56	56	56	26.0	5;	%FI2 0 ror
	14	0.0	0.0	0.0	-0.0	1.0	100.0	1	0.0	0.0	0.0	14	14	90600	28.0	6;	%FI2 0 solar
	15	0.0	0.0	0.0	-0.0	1.0	100.0	1	218.42857142857142	78.4	5.0	28	28	74600	224.0	0;	%FR1 0 CCGT
	15	0.0	0.0	0.0	-0.0	1.0	100.0	1	224.0	78.4	2.8	0	0	74600	224.0	1;	%FR1 0 OCGT
	15	0.0	0.0	0.0	-0.0	1.0	100.0	1	9.940986538461537	2.0436	2.8	104	104	104	10.0	8;	%FR1 0 biomass
	15	0.0	0.0	0.0	-0.0	1.0	100.0	1	990.0	500.0	5.5	41	41	41	1000.0	10;	%FR1 0 nuclear
	15	0.0	0.0	0.0	-0.0	1.0	100.0	1	0.485402945228425	0.0	0.0	1	1	982100	17.0	2;	%FR1 0 offwind
	15	0.0	0.0	0.0	-0.0	1.0	100.0	1	42.333333333333336	0.0	2.8	6	6	6	50.0	3;	%FR1 0 oil
	15	0.0	0.0	0.0	-0.0	1.0	100.0	1	8.616948779000003	0.0	0.0	452	452	439400	38.0	4;	%FR1 0 onwind
	15	0.0	0.0	0.0	-0.0	1.0	100.0	1	4.375739530502598	0.0	3.5	257	257	257	26.0	5;	%FR1 0 ror
	15	0.0	0.0	0.0	-0.0	1.0	100.0	1	0.0	0.0	0.0	417	417	596300	28.0	6;	%FR1 0 solar
	16	0.0	0.0	0.0	-0.0	1.0	100.0	1	223.36658709596236	78.4	5.0	137	137	81100	224.0	0;	%GB0 0 CCGT
	16	0.0	0.0	0.0	-0.0	1.0	100.0	1	224.0	78.4	2.8	0	0	81100	224.0	1;	%GB0 0 OCGT
	16	0.0	0.0	0.0	-0.0	1.0	100.0	1	9.998127925117004	2.0436	2.8	641	641	641	10.0	8;	%GB0 0 biomass
	16	0.0	0.0	0.0	-0.0	1.0	100.0	1	270.8333333333333	89.375	3.0	12	12	12	275.0	9;	%GB0 0 coal
	16	0.0	0.0	0.0	-0.0	1.0	100.0	1	918.1428571428571	500.0	5.5	7	7	7	1000.0	10;	%GB0 0 nuclear
	16	0.0	0.0	0.0	-0.0	1.0	100.0	1	29.996680950142835	0.0	0.0	570	570	1068200	17.0	2;	%GB0 0 offwind
	16	0.0	0.0	0.0	-0.0	1.0	100.0	1	30.375499057650966	0.0	0.0	343	343	477900	38.0	4;	%GB0 0 onwind
	16	0.0	0.0	0.0	-0.0	1.0	100.0	1	1.780277844539176	0.0	3.5	339	339	339	26.0	5;	%GB0 0 ror
	16	0.0	0.0	0.0	-0.0	1.0	100.0	1	0.0	0.0	0.0	451	451	648600	28.0	6;	%GB0 0 solar
	17	0.0	0.0	0.0	-0.0	1.0	100.0	1	199.66666666666666	78.4	5.0	6	6	3500	224.0	0;	%GB5 0 CCGT
	17	0.0	0.0	0.0	-0.0	1.0	100.0	1	224.0	78.4	2.8	0	0	3500	224.0	1;	%GB5 0 OCGT
	17	0.0	0.0	0.0	-0.0	1.0	100.0	1	9.675	2.0436	2.8	4	4	4	10.0	8;	%GB5 0 biomass
	17	0.0	0.0	0.0	-0.0	1.0	100.0	1	29.558516712269075	0.0	0.0	42	42	45600	17.0	2;	%GB5 0 offwind
	17	0.0	0.0	0.0	-0.0	1.0	100.0	1	36.30147701836201	0.0	0.0	29	29	20400	38.0	4;	%GB5 0 onwind
	17	0.0	0.0	0.0	-0.0	1.0	100.0	1	0.0	0.0	0.0	31	31	27700	28.0	6;	%GB5 0 solar
	18	0.0	0.0	0.0	-0.0	1.0	100.0	1	219.4811754872973	78.4	5.0	19	19	11100	224.0	0;	%GR1 0 CCGT
	18	0.0	0.0	0.0	-0.0	1.0	100.0	1	224.0	78.4	2.8	0	0	11100	224.0	1;	%GR1 0 OCGT
	18	0.0	0.0	0.0	-0.0	1.0	100.0	1	220.0	110.0	3.0	3	3	3	275.0	7;	%GR1 0 lignite
	18	0.0	0.0	0.0	-0.0	1.0	100.0	1	8.767402560996555	0.0	0.0	0	0	145800	17.0	2;	%GR1 0 offwind
	18	0.0	0.0	0.0	-0.0	1.0	100.0	1	47.24311026765802	0.0	2.8	2	2	2	50.0	3;	%GR1 0 oil
	18	0.0	0.0	0.0	-0.0	1.0	100.0	1	6.657851097803325	0.0	0.0	109	109	65200	38.0	4;	%GR1 0 onwind
	18	0.0	0.0	0.0	-0.0	1.0	100.0	1	3.6553016144117922	0.0	3.5	4	4	4	26.0	5;	%GR1 0 ror
	18	0.0	0.0	0.0	-0.0	1.0	100.0	1	0.8990853169915789	0.0	0.0	116	116	88500	28.0	6;	%GR1 0 solar
	19	0.0	0.0	0.0	-0.0	1.0	100.0	1	78.4	78.4	5.0	1	1	1400	224.0	0;	%HR1 0 CCGT
	19	0.0	0.0	0.0	-0.0	1.0	100.0	1	224.0	78.4	2.8	0	0	1400	224.0	1;	%HR1 0 OCGT
	19	0.0	0.0	0.0	-0.0	1.0	100.0	1	0.43610933058033846	0.0	0.0	0	0	18300	17.0	2;	%HR1 0 offwind
	19	0.0	0.0	0.0	-0.0	1.0	100.0	1	0.5581261838671071	0.0	0.0	21	21	8200	38.0	4;	%HR1 0 onwind
	19	0.0	0.0	0.0	-0.0	1.0	100.0	1	4.996989017955623	0.0	3.5	11	11	11	26.0	5;	%HR1 0 ror
	19	0.0	0.0	0.0	-0.0	1.0	100.0	1	0.0	0.0	0.0	4	4	11100	28.0	6;	%HR1 0 solar
	20	0.0	0.0	0.0	-0.0	1.0	100.0	1	215.52499999999998	78.4	5.0	8	8	5700	224.0	0;	%HU1 0 CCGT
	20	0.0	0.0	0.0	-0.0	1.0	100.0	1	224.0	78.4	2.8	0	0	5700	224.0	1;	%HU1 0 OCGT
	20	0.0	0.0	0.0	-0.0	1.0	100.0	1	230.4842391407936	89.375	3.0	1	1	1	275.0	9;	%HU1 0 coal
	20	0.0	0.0	0.0	-0.0	1.0	100.0	1	949.45	500.0	5.5	2	2	2	1000.0	10;	%HU1 0 nuclear
	20	0.0	0.0	0.0	-0.0	1.0	100.0	1	42.5	0.0	2.8	4	4	4	50.0	3;	%HU1 0 oil
	20	0.0	0.0	0.0	-0.0	1.0	100.0	1	4.980022280893576	0.0	0.0	9	9	33300	38.0	4;	%HU1 0 onwind
	20	0.0	0.0	0.0	-0.0	1.0	100.0	1	3.010142169877661	0.0	3.5	1	1	1	26.0	5;	%HU1 0 ror
	20	0.0	0.0	0.0	-0.0	1.0	100.0	1	0.0	0.0	0.0	70	70	45200	28.0	6;	%HU1 0 solar
	21	0.0	0.0	0.0	-0.0	1.0	100.0	1	222.05263157894737	78.4	5.0	19	19	8300	224.0	0;	%IE5 0 CCGT
	21	0.0	0.0	0.0	-0.0	1.0	100.0	1	224.0	78.4	2.8	0	0	8300	224.0	1;	%IE5 0 OCGT
	21	0.0	0.0	0.0	-0.0	1.0	100.0	1	253.0	110.0	3.0	1	1	1	275.0	7;	%IE5 0 lignite
	21	0.0	0.0	0.0	-0.0	1.0	100.0	1	22.22865109780762	0.0	0.0	2	2	108700	17.0	2;	%IE5 0 offwind
	21	0.0	0.0	0.0	-0.0	1.0	100.0	1	41.6	0.0	2.8	5	5	5	50.0	3;	%IE5 0 oil
	21	0.0	0.0	0.0	-0.0	1.0	100.0	1	34.75604148871156	0.0	0.0	113	113	48700	38.0	4;	%IE5 0 onwind
	21	0.0	0.0	0.0	-0.0	1.0	100.0	1	6.211628070255063	0.0	3.5	9	9	9	26.0	5;	%IE5 0 ror
	21	0.0	0.0	0.0	-0.0	1.0	100.0	1	0.0	0.0	0.0	2	2	66000	28.0	6;	%IE5 0 solar
	22	0.0	0.0	0.0	-0.0	1.0	100.0	1	223.67257142857142	78.4	5.0	175	175	67800	224.0	0;	%IT1 0 CCGT
	22	0.0	0.0	0.0	-0.0	1.0	100.0	1	224.0	78.4	2.8	0	0	67800	224.0	1;	%IT1 0 OCGT
	22	0.0	0.0	0.0	-0.0	1.0	100.0	1	9.883645833333333	2.0436	2.8	48	48	48	10.0	8;	%IT1 0 biomass
	22	0.0	0.0	0.0	-0.0	1.0	100.0	1	59.0	0.0	2.8	1	1	1	59.0	11;	%IT1 0 geothermal
	22	0.0	0.0	0.0	-0.0	1.0	100.0	1	1.1225056384859566	0.0	0.0	0	0	893000	17.0	2;	%IT1 0 offwind
	22	0.0	0.0	0.0	-0.0	1.0	100.0	1	0.713962711406922	0.0	0.0	229	229	399500	38.0	4;	%IT1 0 onwind
	22	0.0	0.0	0.0	-0.0	1.0	100.0	1	7.378394780187824	0.0	3.5	273	273	273	26.0	5;	%IT1 0 ror
	22	0.0	0.0	0.0	-0.0	1.0	100.0	1	0.0	0.0	0.0	731	731	542200	28.0	6;	%IT1 0 solar
	23	0.0	0.0	0.0	-0.0	1.0	100.0	1	179.5	78.4	5.0	4	4	4100	224.0	0;	%IT3 0 CCGT
	23	0.0	0.0	0.0	-0.0	1.0	100.0	1	224.0	78.4	2.8	0	0	4100	224.0	1;	%IT3 0 OCGT
	23	0.0	0.0	0.0	-0.0	1.0	100.0	1	9.0	2.0436	2.8	4	4	4	10.0	8;	%IT3 0 biomass
	23	0.0	0.0	0.0	-0.0	1.0	100.0	1	0.04472445288839846	0.0	0.0	0	0	53400	17.0	2;	%IT3 0 offwind
	23	0.0	0.0	0.0	-0.0	1.0	100.0	1	50.0	0.0	2.8	3	3	3	50.0	3;	%IT3 0 oil
	23	0.0	0.0	0.0	-0.0	1.0	100.0	1	0.0	0.0	0.0	63	63	23900	38.0	4;	%IT3 0 onwind
	23	0.0	0.0	0.0	-0.0	1.0	100.0	1	5.678104114462511	0.0	3.5	3	3	3	26.0	5;	%IT3 0 ror
	23	0.0	0.0	0.0	-0.0	1.0	100.0	1	0.0	0.0	0.0	43	43	32500	28.0	6;	%IT3 0 solar
	24	0.0	0.0	0.0	-0.0	1.0	100.0	1	209.0	78.4	5.0	5	5	1700	224.0	0;	%LT6 0 CCGT
	24	0.0	0.0	0.0	-0.0	1.0	100.0	1	224.0	78.4	2.8	0	0	1700	224.0	1;	%LT6 0 OCGT
	24	0.0	0.0	0.0	-0.0	1.0	100.0	1	30.107	0.0	0.0	0	0	21600	17.0	2;	%LT6 0 offwind
	24	0.0	0.0	0.0	-0.0	1.0	100.0	1	19.55285516069689	0.0	0.0	15	15	9700	38.0	4;	%LT6 0 onwind
	24	0.0	0.0	0.0	-0.0	1.0	100.0	1	10.080495955623672	0.0	3.5	4	4	4	26.0	5;	%LT6 0 ror
	24	0.0	0.0	0.0	-0.0	1.0	100.0	1	0.0	0.0	0.0	6	6	13100	28.0	6;	%LT6 0 solar
	25	0.0	0.0	0.0	-0.0	1.0	100.0	1	224.0	78.4	5.0	0	0	600	224.0	0;	%LU1 0 CCGT
	25	0.0	0.0	0.0	-0.0	1.0	100.0	1	224.0	78.4	2.8	0	0	600	224.0	1;	%LU1 0 OCGT
	25	0.0	0.0	0.0	-0.0	1.0	100.0	1	7.3335	2.0436	2.8	1	1	1	10.0	8;	%LU1 0 biomass
	25	0.0	0.0	0.0	-0.0	1.0	100.0	1	13.617267005113332	0.0	0.0	7	7	3300	38.0	4;	%LU1 0 onwind
	25	0.0	0.0	0.0	-0.0	1.0	100.0	1	12.76227469990092	0.0	3.5	2	2	2	26.0	5;	%LU1 0 ror
	25	0.0	0.0	0.0	-0.0	1.0	100.0	1	0.0	0.0	0.0	10	10	4500	28.0	6;	%LU1 0 solar
	26	0.0	0.0	0.0	-0.0	1.0	100.0	1	207.8	78.4	5.0	5	5	2400	224.0	0;	%LV6 0 CCGT
	26	0.0	0.0	0.0	-0.0	1.0	100.0	1	224.0	78.4	2.8	0	0	2400	224.0	1;	%LV6 0 OCGT
	26	0.0	0.0	0.0	-0.0	1.0	100.0	1	30.106980363398094	0.0	0.0	0	0	31300	17.0	2;	%LV6 0 offwind
	26	0.0	0.0	0.0	-0.0	1.0	100.0	1	15.095989794433743	0.0	0.0	3	3	14100	38.0	4;	%LV6 0 onwind
	26	0.0	0.0	0.0	-0.0	1.0	100.0	1	3.2084769585356927	0.0	3.5	60	60	60	26.0	5;	%LV6 0 ror
	26	0.0	0.0	0.0	-0.0	1.0	100.0	1	0.0	0.0	0.0	1	1	19100	28.0	6;	%LV6 0 solar
	27	0.0	0.0	0.0	-0.0	1.0	100.0	1	224.0	78.4	5.0	0	0	400	224.0	0;	%ME1 0 CCGT
	27	0.0	0.0	0.0	-0.0	1.0	100.0	1	224.0	78.4	2.8	0	0	400	224.0	1;	%ME1 0 OCGT
	27	0.0	0.0	0.0	-0.0	1.0	100.0	1	207.4814722673996	110.0	3.0	1	1	1	275.0	7;	%ME1 0 lignite
	27	0.0	0.0	0.0	-0.0	1.0	100.0	1	0.0	0.0	0.0	0	0	4100	17.0	2;	%ME1 0 offwind
	27	0.0	0.0	0.0	-0.0	1.0	100.0	1	0.0	0.0	0.0	4	4	1800	38.0	4;	%ME1 0 onwind
	27	0.0	0.0	0.0	-0.0	1.0	100.0	1	1.8783500293919047	0.0	3.5	1	1	1	26.0	5;	%ME1 0 ror
	27	0.0	0.0	0.0	-0.0	1.0	100.0	1	0.0	0.0	0.0	1	1	2500	28.0	6;	%ME1 0 solar
	28	0.0	0.0	0.0	-0.0	1.0	100.0	1	224.0	78.4	5.0	0	0	800	224.0	0;	%MK1 0 CCGT
	28	0.0	0.0	0.0	-0.0	1.0	100.0	1	224.0	78.4	2.8	0	0	800	224.0	1;	%MK1 0 OCGT
	28	0.0	0.0	0.0	-0.0	1.0	100.0	1	0.0	0.0	0.0	1	1	4500	38.0	4;	%MK1 0 onwind
	28	0.0	0.0	0.0	-0.0	1.0	100.0	1	0.0	0.0	0.0	4	4	6000	28.0	6;	%MK1 0 solar
	29	0.0	0.0	0.0	-0.0	1.0	100.0	1	222.38863636363638	78.4	5.0	44	44	27800	224.0	0;	%NL1 0 CCGT
	29	0.0	0.0	0.0	-0.0	1.0	100.0	1	224.0	78.4	2.8	0	0	27800	224.0	1;	%NL1 0 OCGT
...
];

%% generator cost data
%	2	startup	shutdown	n	c(n-1)	...	c0	investment
mpc.gencost = [
	2	159927.88965517245	63971.15586206898	3	0.0	815.9586206896554	0.0	0.0	53176.53408618597;	%AL1 0 CCGT
	2	220306.39024390245	88122.55609756098	3	0.0	1124.0121951219514	0.0	0.0	24215.634347846604;	%AL1 0 OCGT
	2	0.0	0.0	3	0.0	0.315	0.0	0.0	7537.408855592738;	%AL1 0 offwind
	2	0.0	0.0	3	0.0	3126.0	0.0	0.0	4539.309106966063;	%AL1 0 oil
	2	0.0	0.0	3	0.0	0.315	0.0	0.0	8753.029525106518;	%AL1 0 onwind
	2	0.0	0.0	3	0.0	0.0	0.0	0.0	18645.04141682184;	%AL1 0 ror
	2	0.0	0.0	3	0.0	0.20999999999999996	0.0	0.0	2389.7280697896135;	%AL1 0 solar
	2	159149.1655446502	63659.66621786008	3	0.0	811.9855384931132	0.0	0.0	53176.534086185966;	%AT1 0 CCGT
	2	220306.39024390245	88122.55609756098	3	0.0	1124.0121951219514	0.0	0.0	24215.634347846604;	%AT1 0 OCGT
	2	0.0	0.0	3	0.0	0.31499999999999995	0.0	0.0	8753.029525106518;	%AT1 0 onwind
	2	0.0	0.0	3	0.0	0.0	0.0	0.0	18645.04141682184;	%AT1 0 ror
	2	0.0	0.0	3	0.0	0.21000000000000005	0.0	0.0	2389.728069789614;	%AT1 0 solar
	2	159927.88965517245	63971.15586206898	3	0.0	815.9586206896554	0.0	0.0	53176.53408618597;	%BA1 0 CCGT
	2	220306.39024390245	88122.55609756098	3	0.0	1124.0121951219514	0.0	0.0	24215.634347846604;	%BA1 0 OCGT
	2	70962.49999999999	28384.999999999996	3	0.0	258.0454545454545	0.0	0.0	230720.84443064217;	%BA1 0 lignite
	2	0.0	0.0	3	0.0	0.315	0.0	0.0	8753.029525106518;	%BA1 0 onwind
	2	0.0	0.0	3	0.0	0.21000000000000005	0.0	0.0	2389.728069789614;	%BA1 0 solar
	2	189076.87847933656	75630.75139173461	3	0.0	964.6779514251864	0.0	0.0	53176.53408618597;	%BE1 0 CCGT
	2	220306.3902439025	88122.55609756101	3	0.0	1124.0121951219514	0.0	0.0	24215.634347846604;	%BE1 0 OCGT
	2	1597.9212765957448	639.1685106382979	3	0.0	312.76595744680856	0.0	0.0	6666.374854425727;	%BE1 0 biomass
	2	0.0	0.0	3	0.0	0.315	0.0	0.0	7816.950728249278;	%BE1 0 offwind
	2	0.0	0.0	3	0.0	0.315	0.0	0.0	8753.029525106518;	%BE1 0 onwind
	2	0.0	0.0	3	0.0	0.0	0.0	0.0	18645.04141682184;	%BE1 0 ror
	2	0.0	0.0	3	0.0	0.21000000000000005	0.0	0.0	2389.7280697896135;	%BE1 0 solar
	2	159927.88965517245	63971.15586206898	3	0.0	815.9586206896554	0.0	0.0	53176.534086185966;	%BG1 0 CCGT
	2	220306.39024390245	88122.55609756098	3	0.0	1124.0121951219512	0.0	0.0	24215.634347846604;	%BG1 0 OCGT
	2	132305.46875	52922.1875	3	0.0	592.1363636363636	0.0	0.0	230720.84443064217;	%BG1 0 coal
	2	70962.49999999997	28384.999999999993	3	0.0	258.0454545454545	0.0	0.0	230720.84443064214;	%BG1 0 lignite
	2	298693.1818181818	119477.27272727272	3	0.0	238.95454545454547	0.0	0.0	1694317.916911888;	%BG1 0 nuclear
	2	0.0	0.0	3	0.0	0.315	0.0	0.0	7940.764296509218;	%BG1 0 offwind
	2	0.0	0.0	3	0.0	0.31499999999999995	0.0	0.0	8753.029525106518;	%BG1 0 onwind
	2	0.0	0.0	3	0.0	0.0	0.0	0.0	18645.04141682184;	%BG1 0 ror
	2	0.0	0.0	3	0.0	0.20999999999999996	0.0	0.0	2389.7280697896135;	%BG1 0 solar
	2	159927.88965517242	63971.155862068976	3	0.0	815.9586206896553	0.0	0.0	53176.534086185966;	%CH1 0 CCGT
	2	220306.39024390245	88122.55609756098	3	0.0	1124.0121951219512	0.0	0.0	24215.6343478466;	%CH1 0 OCGT
	2	1597.9212765957448	639.1685106382979	3	0.0	312.76595744680856	0.0	0.0	6666.374854425727;	%CH1 0 biomass
	2	298693.1818181818	119477.27272727272	3	0.0	238.95454545454547	0.0	0.0	1694317.916911888;	%CH1 0 nuclear
	2	0.0	0.0	3	0.0	0.31499999999999995	0.0	0.0	8753.029525106518;	%CH1 0 onwind
	2	0.0	0.0	3	0.0	0.0	0.0	0.0	18645.04141682184;	%CH1 0 ror
	2	0.0	0.0	3	0.0	0.21	0.0	0.0	2389.7280697896135;	%CH1 0 solar
	2	159927.88965517245	63971.15586206898	3	0.0	815.9586206896554	0.0	0.0	53176.53408618597;	%CZ1 0 CCGT
	2	220306.39024390245	88122.55609756098	3	0.0	1124.0121951219514	0.0	0.0	24215.634347846604;	%CZ1 0 OCGT
	2	70962.49999999999	28384.999999999996	3	0.0	258.0454545454545	0.0	0.0	230720.8444306422;	%CZ1 0 lignite
	2	298693.1818181818	119477.27272727272	3	0.0	238.95454545454547	0.0	0.0	1694317.916911888;	%CZ1 0 nuclear
	2	0.0	0.0	3	0.0	0.315	0.0	0.0	8753.029525106518;	%CZ1 0 onwind
	2	0.0	0.0	3	0.0	0.0	0.0	0.0	18645.04141682184;	%CZ1 0 ror
	2	0.0	0.0	3	0.0	0.20999999999999996	0.0	0.0	2389.7280697896135;	%CZ1 0 solar
	2	181380.9443865562	72552.37775462249	3	0.0	925.4129815640622	0.0	0.0	53176.53408618597;	%DE1 0 CCGT
	2	201177.68706687482	80471.07482674993	3	0.0	1026.4167707493611	0.0	0.0	24215.634347846604;	%DE1 0 OCGT
	2	1597.9212765957448	639.1685106382979	3	0.0	312.7659574468085	0.0	0.0	6666.374854425727;	%DE1 0 biomass
	2	132284.88462597184	52913.95385038874	3	0.0	592.0442388854683	0.0	0.0	230720.84443064217;	%DE1 0 coal
	2	64654.36077601594	25861.74431040638	3	0.0	235.10676645823978	0.0	0.0	230720.84443064217;	%DE1 0 lignite
	2	0.0	0.0	3	0.0	0.315	0.0	0.0	8647.582611674321;	%DE1 0 offwind
	2	0.0	0.0	3	0.0	2902.472238581766	0.0	0.0	4539.309106966063;	%DE1 0 oil
	2	0.0	0.0	3	0.0	0.315	0.0	0.0	8753.029525106518;	%DE1 0 onwind
	2	0.0	0.0	3	0.0	0.0	0.0	0.0	18645.04141682184;	%DE1 0 ror
	2	0.0	0.0	3	0.0	0.20999999999999996	0.0	0.0	2389.7280697896135;	%DE1 0 solar
	2	180459.93614692058	72183.97445876824	3	0.0	920.7139599332681	0.0	0.0	53176.53408618597;	%DK1 0 CCGT
	2	220306.39024390245	88122.55609756098	3	0.0	1124.0121951219514	0.0	0.0	24215.634347846604;	%DK1 0 OCGT
	2	1597.9212765957448	639.1685106382979	3	0.0	312.76595744680856	0.0	0.0	6666.374854425727;	%DK1 0 biomass
	2	132305.46874999997	52922.187499999985	3	0.0	592.1363636363635	0.0	0.0	230720.84443064217;	%DK1 0 coal
	2	0.0	0.0	3	0.0	0.315	0.0	0.0	8349.6013070936;	%DK1 0 offwind
	2	0.0	0.0	3	0.0	0.315	0.0	0.0	8753.029525106518;	%DK1 0 onwind
	2	0.0	0.0	3	0.0	0.21000000000000005	0.0	0.0	2389.728069789614;	%DK1 0 solar
	2	159927.88965517245	63971.15586206898	3	0.0	815.9586206896554	0.0	0.0	53176.53408618597;	%DK2 0 CCGT
	2	220306.39024390245	88122.55609756098	3	0.0	1124.0121951219514	0.0	0.0	24215.634347846604;	%DK2 0 OCGT
	2	1597.9212765957448	639.1685106382979	3	0.0	312.76595744680856	0.0	0.0	6666.374854425727;	%DK2 0 biomass
	2	0.0	0.0	3	0.0	0.315	0.0	0.0	8152.347504462323;	%DK2 0 offwind
	2	0.0	0.0	3	0.0	0.31499999999999995	0.0	0.0	8753.029525106518;	%DK2 0 onwind
	2	0.0	0.0	3	0.0	0.21000000000000005	0.0	0.0	2389.728069789614;	%DK2 0 solar
	2	159927.88965517245	63971.15586206898	3	0.0	815.9586206896554	0.0	0.0	53176.53408618597;	%EE6 0 CCGT
	2	220306.39024390245	88122.55609756098	3	0.0	1124.0121951219514	0.0	0.0	24215.634347846604;	%EE6 0 OCGT
	2	0.0	0.0	3	0.0	0.315	0.0	0.0	8275.98174336512;	%EE6 0 offwind
	2	0.0	0.0	3	0.0	0.3149999999999999	0.0	0.0	8753.029525106518;	%EE6 0 onwind
	2	0.0	0.0	3	0.0	0.21	0.0	0.0	2389.7280697896135;	%EE6 0 solar
	2	185088.28516850097	74035.3140674004	3	0.0	944.3279855535764	0.0	0.0	53176.53408618597;	%ES1 0 CCGT
	2	220306.3902439025	88122.55609756101	3	0.0	1124.0121951219514	0.0	0.0	24215.634347846604;	%ES1 0 OCGT
	2	132305.46875000003	52922.18750000001	3	0.0	592.1363636363636	0.0	0.0	230720.8444306422;	%ES1 0 coal
	2	298693.1818181818	119477.27272727272	3	0.0	238.95454545454547	0.0	0.0	1694317.916911888;	%ES1 0 nuclear
	2	0.0	0.0	3	0.0	0.315	0.0	0.0	8151.073925045702;	%ES1 0 offwind
	2	0.0	0.0	3	0.0	3126.0	0.0	0.0	4539.309106966063;	%ES1 0 oil
	2	0.0	0.0	3	0.0	0.315	0.0	0.0	8753.029525106518;	%ES1 0 onwind
	2	0.0	0.0	3	0.0	0.0	0.0	0.0	18645.04141682184;	%ES1 0 ror
	2	0.0	0.0	3	0.0	0.21000000000000005	0.0	0.0	2389.7280697896135;	%ES1 0 solar
	2	159927.88965517245	63971.15586206898	3	0.0	815.9586206896554	0.0	0.0	53176.53408618597;	%ES4 0 CCGT
	2	220306.39024390245	88122.55609756098	3	0.0	1124.0121951219514	0.0	0.0	24215.634347846604;	%ES4 0 OCGT
	2	0.0	0.0	3	0.0	0.315	0.0	0.0	8030.91201861603;	%ES4 0 offwind
	2	0.0	0.0	3	0.0	3126.0	0.0	0.0	4539.309106966063;	%ES4 0 oil
	2	0.0	0.0	3	0.0	0.315	0.0	0.0	8753.029525106518;	%ES4 0 onwind
	2	0.0	0.0	3	0.0	0.21	0.0	0.0	2389.7280697896135;	%ES4 0 solar
	2	145267.43325550956	58106.97330220383	3	0.0	741.1603737525998	0.0	0.0	53176.53408618597;	%FI2 0 CCGT
	2	220306.39024390245	88122.55609756098	3	0.0	1124.0121951219514	0.0	0.0	24215.634347846604;	%FI2 0 OCGT
	2	1597.9212765957448	639.1685106382979	3	0.0	312.76595744680856	0.0	0.0	6666.374854425727;	%FI2 0 biomass
	2	132305.46875	52922.1875	3	0.0	592.1363636363636	0.0	0.0	230720.84443064217;	%FI2 0 coal
	2	298693.1818181818	119477.27272727272	3	0.0	238.95454545454547	0.0	0.0	1694317.916911888;	%FI2 0 nuclear
	2	0.0	0.0	3	0.0	0.315	0.0	0.0	8221.06429505207;	%FI2 0 offwind
	2	0.0	0.0	3	0.0	0.315	0.0	0.0	8753.029525106518;	%FI2 0 onwind
	2	0.0	0.0	3	0.0	0.0	0.0	0.0	18645.04141682184;	%FI2 0 ror
	2	0.0	0.0	3	0.0	0.21000000000000005	0.0	0.0	2389.728069789614;	%FI2 0 solar
	2	165419.6106086164	66167.84424344657	3	0.0	843.977605146002	0.0	0.0	53176.53408618597;	%FR1 0 CCGT
	2	220306.3902439025	88122.55609756101	3	0.0	1124.0121951219514	0.0	0.0	24215.634347846604;	%FR1 0 OCGT
	2	1597.9212765957448	639.1685106382979	3	0.0	312.76595744680856	0.0	0.0	6666.374854425727;	%FR1 0 biomass
	2	298693.1818181818	119477.27272727272	3	0.0	238.95454545454547	0.0	0.0	1694317.916911888;	%FR1 0 nuclear
	2	0.0	0.0	3	0.0	0.31499999999999995	0.0	0.0	7989.0551658195545;	%FR1 0 offwind
	2	0.0	0.0	3	0.0	3126.0	0.0	0.0	4539.309106966063;	%FR1 0 oil
	2	0.0	0.0	3	0.0	0.315	0.0	0.0	8753.029525106518;	%FR1 0 onwind
	2	0.0	0.0	3	0.0	0.0	0.0	0.0	18645.04141682184;	%FR1 0 ror
	2	0.0	0.0	3	0.0	0.21000000000000005	0.0	0.0	2389.728069789614;	%FR1 0 solar
	2	160306.72412474453	64122.68964989781	3	0.0	817.8914496160434	0.0	0.0	53176.53408618597;	%GB0 0 CCGT
	2	220306.39024390245	88122.55609756098	3	0.0	1124.0121951219512	0.0	0.0	24215.6343478466;	%GB0 0 OCGT
	2	1597.9212765957454	639.1685106382981	3	0.0	312.7659574468086	0.0	0.0	6666.374854425727;	%GB0 0 biomass
	2	132305.46875	52922.1875	3	0.0	592.1363636363636	0.0	0.0	230720.84443064217;	%GB0 0 coal
	2	298693.1818181818	119477.27272727272	3	0.0	238.95454545454547	0.0	0.0	1694317.916911888;	%GB0 0 nuclear
	2	0.0	0.0	3	0.0	0.315	0.0	0.0	8329.203065247271;	%GB0 0 offwind
	2	0.0	0.0	3	0.0	0.315	0.0	0.0	8753.029525106518;	%GB0 0 onwind
	2	0.0	0.0	3	0.0	0.0	0.0	0.0	18645.04141682184;	%GB0 0 ror
	2	0.0	0.0	3	0.0	0.21	0.0	0.0	2389.7280697896135;	%GB0 0 solar
	2	159927.88965517245	63971.15586206898	3	0.0	815.9586206896554	0.0	0.0	53176.53408618597;	%GB5 0 CCGT
	2	220306.39024390245	88122.55609756098	3	0.0	1124.0121951219512	0.0	0.0	24215.634347846604;	%GB5 0 OCGT
	2	1597.9212765957448	639.1685106382979	3	0.0	312.76595744680856	0.0	0.0	6666.374854425727;	%GB5 0 biomass
	2	0.0	0.0	3	0.0	0.315	0.0	0.0	8683.248256855386;	%GB5 0 offwind
	2	0.0	0.0	3	0.0	0.315	0.0	0.0	8753.029525106518;	%GB5 0 onwind
	2	0.0	0.0	3	0.0	0.21	0.0	0.0	2389.7280697896135;	%GB5 0 solar
	2	167827.0180998831	67130.80723995324	3	0.0	856.2602964279749	0.0	0.0	53176.53408618597;	%GR1 0 CCGT
	2	220306.39024390245	88122.55609756098	3	0.0	1124.0121951219512	0.0	0.0	24215.6343478466;	%GR1 0 OCGT
	2	70962.49999999999	28384.999999999996	3	0.0	258.0454545454545	0.0	0.0	230720.84443064217;	%GR1 0 lignite
	2	0.0	0.0	3	0.0	0.315	0.0	0.0	8528.761631980236;	%GR1 0 offwind
	2	0.0	0.0	3	0.0	3126.0	0.0	0.0	4539.309106966063;	%GR1 0 oil
	2	0.0	0.0	3	0.0	0.315	0.0	0.0	8753.029525106518;	%GR1 0 onwind
	2	0.0	0.0	3	0.0	0.0	0.0	0.0	18645.04141682185;	%GR1 0 ror
	2	0.0	0.0	3	0.0	0.20999999999999996	0.0	0.0	2389.7280697896135;	%GR1 0 solar
	2	159927.88965517245	63971.15586206898	3	0.0	815.9586206896554	0.0	0.0	53176.53408618597;	%HR1 0 CCGT
	2	220306.39024390245	88122.55609756098	3	0.0	1124.0121951219514	0.0	0.0	24215.634347846604;	%HR1 0 OCGT
	2	0.0	0.0	3	0.0	0.315	0.0	0.0	8026.401782390322;	%HR1 0 offwind
	2	0.0	0.0	3	0.0	0.315	0.0	0.0	8753.029525106518;	%HR1 0 onwind
	2	0.0	0.0	3	0.0	0.0	0.0	0.0	18645.04141682184;	%HR1 0 ror
	2	0.0	0.0	3	0.0	0.21	0.0	0.0	2389.7280697896135;	%HR1 0 solar
	2	159329.71965437726	63731.8878617509	3	0.0	812.9067329304961	0.0	0.0	53176.53408618597;	%HU1 0 CCGT
	2	220306.39024390245	88122.55609756098	3	0.0	1124.0121951219512	0.0	0.0	24215.6343478466;	%HU1 0 OCGT
	2	132305.46875	52922.1875	3	0.0	592.1363636363636	0.0	0.0	230720.84443064217;	%HU1 0 coal
	2	298693.1818181818	119477.27272727272	3	0.0	238.95454545454547	0.0	0.0	1694317.916911888;	%HU1 0 nuclear
	2	0.0	0.0	3	0.0	3126.0	0.0	0.0	4539.309106966063;	%HU1 0 oil
	2	0.0	0.0	3	0.0	0.31499999999999995	0.0	0.0	8753.029525106518;	%HU1 0 onwind
	2	0.0	0.0	3	0.0	0.0	0.0	0.0	18645.04141682184;	%HU1 0 ror
	2	0.0	0.0	3	0.0	0.21	0.0	0.0	2389.7280697896135;	%HU1 0 solar
	2	190820.61713513912	76328.24685405564	3	0.0	973.5745772200975	0.0	0.0	53176.534086185966;	%IE5 0 CCGT
	2	220306.3902439025	88122.55609756101	3	0.0	1124.0121951219514	0.0	0.0	24215.634347846604;	%IE5 0 OCGT
	2	70962.5	28385.0	3	0.0	258.04545454545456	0.0	0.0	230720.8444306422;	%IE5 0 lignite
	2	0.0	0.0	3	0.0	0.315	0.0	0.0	8355.419082638808;	%IE5 0 offwind
	2	0.0	0.0	3	0.0	3126.0	0.0	0.0	4539.309106966063;	%IE5 0 oil
	2	0.0	0.0	3	0.0	0.315	0.0	0.0	8753.029525106518;	%IE5 0 onwind
	2	0.0	0.0	3	0.0	0.0	0.0	0.0	18645.04141682184;	%IE5 0 ror
	2	0.0	0.0	3	0.0	0.21	0.0	0.0	2389.7280697896135;	%IE5 0 solar
	2	192171.28458702783	76868.51383481114	3	0.0	980.4657376889176	0.0	0.0	53176.53408618597;	%IT1 0 CCGT
	2	220306.39024390245	88122.55609756098	3	0.0	1124.0121951219512	0.0	0.0	24215.6343478466;	%IT1 0 OCGT
	2	1597.921276595745	639.168510638298	3	0.0	312.76595744680856	0.0	0.0	6666.374854425727;	%IT1 0 biomass
	2	0.0	0.0	3	0.0	0.0	0.0	0.0	47308.61240119356;	%IT1 0 geothermal
	2	0.0	0.0	3	0.0	0.315	0.0	0.0	7990.859486046442;	%IT1 0 offwind
	2	0.0	0.0	3	0.0	0.31499999999999995	0.0	0.0	8753.029525106518;	%IT1 0 onwind
	2	0.0	0.0	3	0.0	0.0	0.0	0.0	18645.04141682184;	%IT1 0 ror
	2	0.0	0.0	3	0.0	0.21	0.0	0.0	2389.7280697896135;	%IT1 0 solar
	2	159927.88965517245	63971.15586206898	3	0.0	815.9586206896554	0.0	0.0	53176.53408618597;	%IT3 0 CCGT
	2	220306.39024390245	88122.55609756098	3	0.0	1124.0121951219514	0.0	0.0	24215.634347846604;	%IT3 0 OCGT
	2	1597.9212765957448	639.1685106382979	3	0.0	312.76595744680856	0.0	0.0	6666.374854425727;	%IT3 0 biomass
	2	0.0	0.0	3	0.0	0.31499999999999995	0.0	0.0	7542.942580058721;	%IT3 0 offwind
	2	0.0	0.0	3	0.0	3126.0	0.0	0.0	4539.309106966063;	%IT3 0 oil
	2	0.0	0.0	3	0.0	0.315	0.0	0.0	8753.029525106518;	%IT3 0 onwind
	2	0.0	0.0	3	0.0	0.0	0.0	0.0	18645.04141682184;	%IT3 0 ror
	2	0.0	0.0	3	0.0	0.21	0.0	0.0	2389.7280697896135;	%IT3 0 solar
	2	159927.88965517245	63971.15586206898	3	0.0	815.9586206896554	0.0	0.0	53176.53408618597;	%LT6 0 CCGT
	2	220306.39024390245	88122.55609756098	3	0.0	1124.0121951219514	0.0	0.0	24215.634347846604;	%LT6 0 OCGT
	2	0.0	0.0	3	0.0	0.315	0.0	0.0	7983.909568339949;	%LT6 0 offwind
	2	0.0	0.0	3	0.0	0.3149999999999999	0.0	0.0	8753.029525106518;	%LT6 0 onwind
	2	0.0	0.0	3	0.0	0.0	0.0	0.0	18645.04141682184;	%LT6 0 ror
	2	0.0	0.0	3	0.0	0.21000000000000005	0.0	0.0	2389.728069789614;	%LT6 0 solar
	2	159927.88965517245	63971.15586206898	3	0.0	815.9586206896554	0.0	0.0	53176.53408618597;	%LU1 0 CCGT
	2	220306.39024390245	88122.55609756098	3	0.0	1124.0121951219514	0.0	0.0	24215.634347846604;	%LU1 0 OCGT
	2	1597.9212765957448	639.1685106382979	3	0.0	312.76595744680856	0.0	0.0	6666.374854425727;	%LU1 0 biomass
	2	0.0	0.0	3	0.0	0.315	0.0	0.0	8753.029525106518;	%LU1 0 onwind
	2	0.0	0.0	3	0.0	0.0	0.0	0.0	18645.04141682184;	%LU1 0 ror
	2	0.0	0.0	3	0.0	0.21	0.0	0.0	2389.7280697896135;	%LU1 0 solar
	2	159927.88965517245	63971.15586206898	3	0.0	815.9586206896554	0.0	0.0	53176.53408618597;	%LV6 0 CCGT
	2	220306.39024390245	88122.55609756098	3	0.0	1124.0121951219514	0.0	0.0	24215.634347846604;	%LV6 0 OCGT
	2	0.0	0.0	3	0.0	0.315	0.0	0.0	8100.09998824982;	%LV6 0 offwind
	2	0.0	0.0	3	0.0	0.31499999999999995	0.0	0.0	8753.029525106518;	%LV6 0 onwind
	2	0.0	0.0	3	0.0	0.0	0.0	0.0	18645.04141682184;	%LV6 0 ror
	2	0.0	0.0	3	0.0	0.21000000000000005	0.0	0.0	2389.7280697896135;	%LV6 0 solar
	2	159927.88965517245	63971.15586206898	3	0.0	815.9586206896554	0.0	0.0	53176.53408618597;	%ME1 0 CCGT
	2	220306.39024390245	88122.55609756098	3	0.0	1124.0121951219514	0.0	0.0	24215.634347846604;	%ME1 0 OCGT
	2	70962.49999999999	28384.999999999996	3	0.0	258.0454545454545	0.0	0.0	230720.84443064217;	%ME1 0 lignite
	2	0.0	0.0	3	0.0	0.31499999999999995	0.0	0.0	7698.746262165348;	%ME1 0 offwind
	2	0.0	0.0	3	0.0	0.315	0.0	0.0	8753.029525106518;	%ME1 0 onwind
	2	0.0	0.0	3	0.0	0.0	0.0	0.0	18645.04141682184;	%ME1 0 ror
	2	0.0	0.0	3	0.0	0.21	0.0	0.0	2389.7280697896135;	%ME1 0 solar
	2	159927.88965517245	63971.15586206898	3	0.0	815.9586206896554	0.0	0.0	53176.53408618597;	%MK1 0 CCGT
	2	220306.39024390245	88122.55609756098	3	0.0	1124.0121951219514	0.0	0.0	24215.634347846604;	%MK1 0 OCGT
	2	0.0	0.0	3	0.0	0.315	0.0	0.0	8753.029525106518;	%MK1 0 onwind
	2	0.0	0.0	3	0.0	0.20999999999999996	0.0	0.0	2389.7280697896135;	%MK1 0 solar
	2	194565.8344886123	77826.33379544492	3	0.0	992.682829023532	0.0	0.0	53176.53408618597;	%NL1 0 CCGT
	2	220306.39024390245	88122.55609756098	3	0.0	1124.0121951219514	0.0	0.0	24215.634347846604;	%NL1 0 OCGT
...
];
%% branch data
%	fbus	tbus	r	x	b	rateA	rateB	rateC	ratio	angle	status	angmin	angmax
mpc.branch = [
	1	18	0.009848253769131014	0.08075568090687432	2.055105533175459e-05	1698.1026117405274	1698.1026117405274	1698.1026117405274	0	0	1	-60	60;	%AL1 0 - GR1 0
	1	27	0.0030025768781929826	0.02462113040118246	1.0418231424248789e-05	2189.658630928575	2189.658630928575	2189.658630928575	0	0	1	-60	60;	%AL1 0 - ME1 0
	3	19	0.0018083930284160529	0.014828822833011634	3.763249569104315e-05	5362.429300233244	5362.429300233244	5362.429300233244	0	0	1	-60	60;	%BA1 0 - HR1 0
	3	27	0.0022858595658064302	0.018744048439612727	1.1892132809188925e-05	2681.214650116622	2681.214650116622	2681.214650116622	0	0	1	-60	60;	%BA1 0 - ME1 0
	3	34	0.004149698224123457	0.03402752543781235	1.439847111116458e-05	2189.658630928575	2189.658630928575	2189.658630928575	0	0	1	-60	60;	%BA1 0 - RS1 0
	4	15	0.0021392377588853096	0.01754174962285954	0.00013894357908419004	9473.625097078731	9473.625097078731	9473.625097078731	0	0	1	-60	60;	%BE1 0 - FR1 0
	4	25	0.007463517643991826	0.06120084468073299	5.220314041075356e-06	983.1120383760948	983.1120383760948	983.1120383760948	0	0	1	-60	60;	%BE1 0 - LU1 0
	4	29	0.0011984220022508625	0.009827060418457071	4.001332614924733e-05	6792.41044696211	6792.41044696211	6792.41044696211	0	0	1	-60	60;	%BE1 0 - NL1 0
	5	18	0.011809656492733411	0.09683918324041399	2.4644054643668527e-05	1698.1026117405274	1698.1026117405274	1698.1026117405274	0	0	1	-60	60;	%BG1 0 - GR1 0
	5	28	0.0074365203689532805	0.0609794670254169	1.5518318796486916e-05	1698.1026117405274	1698.1026117405274	1698.1026117405274	0	0	1	-60	60;	%BG1 0 - MK1 0
	5	33	0.0020229105724174743	0.016587866693823287	6.754163420971416e-05	6792.41044696211	6792.41044696211	6792.41044696211	0	0	1	-60	60;	%BG1 0 - RO1 0
	5	34	0.009266320797298841	0.07598383053785052	1.9336694188768876e-05	1698.1026117405274	1698.1026117405274	1698.1026117405274	0	0	1	-60	60;	%BG1 0 - RS1 0
	1	28	0.003649247216798554	0.02992382717774814	7.615145103871138e-06	1698.1026117405274	1698.1026117405274	1698.1026117405274	0	0	1	-60	60;	%AL1 0 - MK1 0
	6	8	0.0007631703989934744	0.006257997271746491	0.00040769593381994505	27169.64178784844	27169.64178784844	27169.64178784844	0	0	1	-60	60;	%CH1 0 - DE1 0
	6	15	0.001746686959247153	0.014322833065826655	0.00011995981004979816	9741.746562090395	9741.746562090395	9741.746562090395	0	0	1	-60	60;	%CH1 0 - FR1 0
	6	22	0.0024168599665192895	0.019818251725458175	0.00011953708173841214	8267.078504526253	8267.078504526253	8267.078504526253	0	0	1	-60	60;	%CH1 0 - IT1 0
	7	8	0.002780890333632855	0.022803300735789414	9.284932327339585e-05	6792.41044696211	6792.41044696211	6792.41044696211	0	0	1	-60	60;	%CZ1 0 - DE1 0
	7	31	0.003347784363454365	0.02745183178032579	4.6464078918691116e-05	4379.31726185715	4379.31726185715	4379.31726185715	0	0	1	-60	60;	%CZ1 0 - PL1 0
	7	37	0.0022035110440118957	0.018068790560897545	5.889802779608092e-05	6077.419873597678	6077.419873597678	6077.419873597678	0	0	1	-60	60;	%CZ1 0 - SK1 0
	8	9	0.0055751311403673546	0.04571607535101231	7.737754441889767e-05	4379.31726185715	4379.31726185715	4379.31726185715	0	0	1	-60	60;	%DE1 0 - DK1 0
	8	15	0.003052301449510847	0.02502887188598894	0.00019824710277172852	9473.625097078731	9473.625097078731	9473.625097078731	0	0	1	-60	60;	%DE1 0 - FR1 0
	8	25	0.003567833648762204	0.02925623591985007	3.056988125714905e-05	3440.892134316332	3440.892134316332	3440.892134316332	0	0	1	-60	60;	%DE1 0 - LU1 0
	8	29	0.0010137080559796212	0.008312406059032893	0.00013538413342828915	13584.82089392422	13584.82089392422	13584.82089392422	0	0	1	-60	60;	%DE1 0 - NL1 0
	1	34	0.005794692518950292	0.047516478655392394	2.010621214505574e-05	2189.658630928575	2189.658630928575	2189.658630928575	0	0	1	-60	60;	%AL1 0 - RS1 0
	8	31	0.004353603674522505	0.03569955013108455	0.00014535961741861056	6792.41044696211	6792.41044696211	6792.41044696211	0	0	1	-60	60;	%DE1 0 - PL1 0
	10	35	0.008840156449238027	0.07248928288375181	7.378954628448345e-05	3396.205223481055	3396.205223481055	3396.205223481055	0	0	1	-60	60;	%DK2 0 - SE2 0
	11	26	0.003946355190980939	0.0323601125660437	2.5984323908562167e-05	3016.3664813811993	3016.3664813811993	3016.3664813811993	0	0	1	-60	60;	%EE6 0 - LV6 0
	12	15	0.008738359575119186	0.07165454851597733	0.00012128016169455197	4379.31726185715	4379.31726185715	4379.31726185715	0	0	1	-60	60;	%ES1 0 - FR1 0
	12	32	0.0012062259975185962	0.00989105317965249	0.00019796854473826301	15059.488951488362	15059.488951488362	15059.488951488362	0	0	1	-60	60;	%ES1 0 - PT1 0
	14	35	0.00638205563753237	0.052332856227765435	5.3271567371009e-05	3396.205223481055	3396.205223481055	3396.205223481055	0	0	1	-60	60;	%FI2 0 - SE2 0
	15	22	0.005999890024650515	0.04919909820213423	0.0001354786999209816	5585.86385440963	5585.86385440963	5585.86385440963	0	0	1	-60	60;	%FR1 0 - IT1 0
	17	21	0.010361795849826232	0.08496672596857512	7.2474978884987885e-06	983.1120383760948	983.1120383760948	983.1120383760948	0	0	1	-60	60;	%GB5 0 - IE5 0
	18	28	0.004004202725752439	0.03283446235117	3.342342458088874e-05	3396.205223481055	3396.205223481055	3396.205223481055	0	0	1	-60	60;	%GR1 0 - MK1 0
	19	20	0.001988073686819386	0.016302204231918964	6.637848828712408e-05	6792.41044696211	6792.41044696211	6792.41044696211	0	0	1	-60	60;	%HR1 0 - HU1 0
	2	6	0.0026944375762084686	0.022094388124909443	8.996280886292391e-05	6792.41044696211	6792.41044696211	6792.41044696211	0	0	1	-60	60;	%AT1 0 - CH1 0
	19	34	0.009775397280548185	0.08015825770049513	2.0399020487482383e-05	1698.1026117405274	1698.1026117405274	1698.1026117405274	0	0	1	-60	60;	%HR1 0 - RS1 0
	19	36	0.001061017767836014	0.008700345696255314	2.8360127421173892e-05	6077.419873597677	6077.419873597677	6077.419873597677	0	0	1	-60	60;	%HR1 0 - SI1 0
	20	33	0.006636093665607568	0.054415968057982045	5.539204464291175e-05	3396.205223481055	3396.205223481055	3396.205223481055	0	0	1	-60	60;	%HU1 0 - RO1 0
	20	34	0.009655208499685108	0.07917270969741788	2.0148213964450305e-05	1698.1026117405274	1698.1026117405274	1698.1026117405274	0	0	1	-60	60;	%HU1 0 - RS1 0
	20	37	0.0020794721545383987	0.017051671667214868	1.7357532943642834e-05	3396.205223481055	3396.205223481055	3396.205223481055	0	0	1	-60	60;	%HU1 0 - SK1 0
	22	36	0.007514020690225535	0.06161496965984938	2.607187414447671e-05	2189.658630928575	2189.658630928575	2189.658630928575	0	0	1	-60	60;	%IT1 0 - SI1 0
	24	26	0.002102615191994796	0.017241444574357327	2.4612318201292353e-05	4021.8219751749325	4021.8219751749325	4021.8219751749325	0	0	1	-60	60;	%LT6 0 - LV6 0
	27	34	0.003126505250815498	0.025637343056687086	1.6265573015727845e-05	2681.214650116622	2681.214650116622	2681.214650116622	0	0	1	-60	60;	%ME1 0 - RS1 0
	28	34	0.003785008600601789	0.03103707052493467	3.1593792363861075e-05	3396.205223481055	3396.205223481055	3396.205223481055	0	0	1	-60	60;	%MK1 0 - RS1 0
	30	35	0.0024786328048168375	0.02032478899949807	9.516891246805635e-05	7283.966466150157	7283.966466150157	7283.966466150157	0	0	1	-60	60;	%NO2 0 - SE2 0
	2	7	0.0028351633943507356	0.02324833983367603	3.934938496653041e-05	4379.31726185715	4379.31726185715	4379.31726185715	0	0	1	-60	60;	%AT1 0 - CZ1 0
	31	37	0.004238372016881548	0.034754650538428696	3.5378055796455685e-05	3396.205223481055	3396.205223481055	3396.205223481055	0	0	1	-60	60;	%PL1 0 - SK1 0
	33	34	0.003324374066655655	0.027259867346576365	6.243488164499935e-05	5094.3078352215825	5094.3078352215825	5094.3078352215825	0	0	1	-60	60;	%RO1 0 - RS1 0
	2	8	0.0013316115224353564	0.010919214483969923	0.00024801282886009247	16042.600989864455	16042.600989864455	16042.600989864455	0	0	1	-60	60;	%AT1 0 - DE1 0
	2	20	0.004015691830712427	0.032928673011841894	5.573400251587286e-05	4379.31726185715	4379.31726185715	4379.31726185715	0	0	1	-60	60;	%AT1 0 - HU1 0
	2	22	0.04171419942875124	0.3420564353157602	7.2941885909999375e-06	491.5560191880474	491.5560191880474	491.5560191880474	0	0	1	-60	60;	%AT1 0 - IT1 0
	2	36	0.0020781020444500566	0.017040436764490463	2.2730714081766998e-05	3887.761242669102	3887.761242669102	3887.761242669102	0	0	1	-60	60;	%AT1 0 - SI1 0
];
%% dcline data
%	fbus	tbus	status	Pf	Pt	Qf	Qt	Vf	Vt	Pmin	Pmax	QminF	QmaxF	QminT	QmaxT	loss0	loss1
mpc.dcline = [
	22	18	1	0.0	0.0	0.0	0.0	1.0	1.0	-500.0	500.0	-500.0	500.0	-500.0	500.0	0.0	0.01;	%IT1 0 - GR1 0
	13	12	1	0.0	0.0	0.0	0.0	1.0	1.0	-400.0	400.0	-400.0	400.0	-400.0	400.0	0.0	0.01;	%ES4 0 - ES1 0
	22	23	1	0.0	0.0	0.0	0.0	1.0	1.0	-1000.0	1000.0	-1000.0	1000.0	-1000.0	1000.0	0.0	0.01;	%IT1 0 - IT3 0
	22	27	1	0.0	0.0	0.0	0.0	1.0	1.0	-1000.0	1000.0	-1000.0	1000.0	-1000.0	1000.0	0.0	0.01;	%IT1 0 - ME1 0
	15	12	1	0.0	0.0	0.0	0.0	1.0	1.0	-2000.0	2000.0	-2000.0	2000.0	-2000.0	2000.0	0.0	0.01;	%FR1 0 - ES1 0
	8	4	1	0.0	0.0	0.0	0.0	1.0	1.0	-1000.0	1000.0	-1000.0	1000.0	-1000.0	1000.0	0.0	0.01;	%DE1 0 - BE1 0
	16	29	1	0.0	0.0	0.0	0.0	1.0	1.0	-1000.0	1000.0	-1000.0	1000.0	-1000.0	1000.0	0.0	0.01;	%GB0 0 - NL1 0
	16	15	1	0.0	0.0	0.0	0.0	1.0	1.0	-2000.0	2000.0	-2000.0	2000.0	-2000.0	2000.0	0.0	0.01;	%GB0 0 - FR1 0
	24	35	1	0.0	0.0	0.0	0.0	1.0	1.0	-700.0	700.0	-700.0	700.0	-700.0	700.0	0.0	0.01;	%LT6 0 - SE2 0
	10	9	1	0.0	0.0	0.0	0.0	1.0	1.0	-600.0	600.0	-600.0	600.0	-600.0	600.0	0.0	0.01;	%DK2 0 - DK1 0
	10	8	1	0.0	0.0	0.0	0.0	1.0	1.0	-600.0	600.0	-600.0	600.0	-600.0	600.0	0.0	0.01;	%DK2 0 - DE1 0
	35	8	1	0.0	0.0	0.0	0.0	1.0	1.0	-600.0	600.0	-600.0	600.0	-600.0	600.0	0.0	0.01;	%SE2 0 - DE1 0
	31	35	1	0.0	0.0	0.0	0.0	1.0	1.0	-600.0	600.0	-600.0	600.0	-600.0	600.0	0.0	0.01;	%PL1 0 - SE2 0
	29	9	1	0.0	0.0	0.0	0.0	1.0	1.0	-700.0	700.0	-700.0	700.0	-700.0	700.0	0.0	0.01;	%NL1 0 - DK1 0
	29	30	1	0.0	0.0	0.0	0.0	1.0	1.0	-700.0	700.0	-700.0	700.0	-700.0	700.0	0.0	0.01;	%NL1 0 - NO2 0
	8	30	1	0.0	0.0	0.0	0.0	1.0	1.0	-1400.0	1400.0	-1400.0	1400.0	-1400.0	1400.0	0.0	0.01;	%DE1 0 - NO2 0
	16	17	1	0.0	0.0	0.0	0.0	1.0	1.0	-2501.0	2501.0	-2501.0	2501.0	-2501.0	2501.0	0.0	0.01;	%GB0 0 - GB5 0
	16	17	1	0.0	0.0	0.0	0.0	1.0	1.0	-250.0	250.0	-250.0	250.0	-250.0	250.0	0.0	0.01;	%GB0 0 - GB5 0
	16	21	1	0.0	0.0	0.0	0.0	1.0	1.0	-500.0	500.0	-500.0	500.0	-500.0	500.0	0.0	0.01;	%GB0 0 - IE5 0
	35	9	1	0.0	0.0	0.0	0.0	1.0	1.0	-250.0	250.0	-250.0	250.0	-250.0	250.0	0.0	0.01;	%SE2 0 - DK1 0
	35	9	1	0.0	0.0	0.0	0.0	1.0	1.0	-300.0	300.0	-300.0	300.0	-300.0	300.0	0.0	0.01;	%SE2 0 - DK1 0
	14	11	1	0.0	0.0	0.0	0.0	1.0	1.0	-600.0	600.0	-600.0	600.0	-600.0	600.0	0.0	0.01;	%FI2 0 - EE6 0
	14	11	1	0.0	0.0	0.0	0.0	1.0	1.0	-650.0	650.0	-650.0	650.0	-650.0	650.0	0.0	0.01;	%FI2 0 - EE6 0
	35	14	1	0.0	0.0	0.0	0.0	1.0	1.0	-800.0	800.0	-800.0	800.0	-800.0	800.0	0.0	0.01;	%SE2 0 - FI2 0
	35	14	1	0.0	0.0	0.0	0.0	1.0	1.0	-500.0	500.0	-500.0	500.0	-500.0	500.0	0.0	0.01;	%SE2 0 - FI2 0
	12	15	1	0.0	0.0	0.0	0.0	1.0	1.0	-2200.0	2200.0	-2200.0	2200.0	-2200.0	2200.0	0.0	0.01;	%ES1 0 - FR1 0
	22	15	1	0.0	0.0	0.0	0.0	1.0	1.0	-1000.0	1000.0	-1000.0	1000.0	-1000.0	1000.0	0.0	0.01;	%IT1 0 - FR1 0
	15	16	1	0.0	0.0	0.0	0.0	1.0	1.0	-1000.0	1000.0	-1000.0	1000.0	-1000.0	1000.0	0.0	0.01;	%FR1 0 - GB0 0
	16	4	1	0.0	0.0	0.0	0.0	1.0	1.0	-1000.0	1000.0	-1000.0	1000.0	-1000.0	1000.0	0.0	0.01;	%GB0 0 - BE1 0
	16	15	1	0.0	0.0	0.0	0.0	1.0	1.0	-1400.0	1400.0	-1400.0	1400.0	-1400.0	1400.0	0.0	0.01;	%GB0 0 - FR1 0
	16	9	1	0.0	0.0	0.0	0.0	1.0	1.0	-1400.0	1400.0	-1400.0	1400.0	-1400.0	1400.0	0.0	0.01;	%GB0 0 - DK1 0
	22	6	1	0.0	0.0	0.0	0.0	1.0	1.0	-1000.0	1000.0	-1000.0	1000.0	-1000.0	1000.0	0.0	0.01;	%IT1 0 - CH1 0
	30	16	1	0.0	0.0	0.0	0.0	1.0	1.0	-1400.0	1400.0	-1400.0	1400.0	-1400.0	1400.0	0.0	0.01;	%NO2 0 - GB0 0
	16	15	1	0.0	0.0	0.0	0.0	1.0	1.0	-2000.0	2000.0	-2000.0	2000.0	-2000.0	2000.0	0.0	0.01;	%GB0 0 - FR1 0
	16	15	1	0.0	0.0	0.0	0.0	1.0	1.0	-1400.0	1400.0	-1400.0	1400.0	-1400.0	1400.0	0.0	0.01;	%GB0 0 - FR1 0
	16	8	1	0.0	0.0	0.0	0.0	1.0	1.0	-1400.0	1400.0	-1400.0	1400.0	-1400.0	1400.0	0.0	0.01;	%GB0 0 - DE1 0
	21	16	1	0.0	0.0	0.0	0.0	1.0	1.0	-500.0	500.0	-500.0	500.0	-500.0	500.0	0.0	0.01;	%IE5 0 - GB0 0
	21	15	1	0.0	0.0	0.0	0.0	1.0	1.0	-700.0	700.0	-700.0	700.0	-700.0	700.0	0.0	0.01;	%IE5 0 - FR1 0
	31	24	1	0.0	0.0	0.0	0.0	1.0	1.0	-2000.0	2000.0	-2000.0	2000.0	-2000.0	2000.0	0.0	0.01;	%PL1 0 - LT6 0
	22	23	1	0.0	0.0	0.0	0.0	1.0	1.0	-300.0	300.0	-300.0	300.0	-300.0	300.0	0.0	0.01;	%IT1 0 - IT3 0
	8	35	1	0.0	0.0	0.0	0.0	1.0	1.0	-700.0	700.0	-700.0	700.0	-700.0	700.0	0.0	0.01;	%DE1 0 - SE2 0
	9	30	1	0.0	0.0	0.0	0.0	1.0	1.0	-1140.0	1140.0	-1140.0	1140.0	-1140.0	1140.0	0.0	0.01;	%DK1 0 - NO2 0
	30	16	1	0.0	0.0	0.0	0.0	1.0	1.0	-0.0	0.0	-0.0	0.0	-0.0	0.0	0.0	0.01;	%NO2 0 - GB0 0
];
